Version 4
SHEET 1 880 680
SYMBOL XOR 192 160 R0
SYMATTR InstName X1
