Version 4
SHEET 1 1268 1300
WIRE -3216 -160 -3392 -160
WIRE -2720 -160 -3216 -160
WIRE -2592 -160 -2720 -160
WIRE -4272 -128 -4272 -224
WIRE -4144 -128 -4144 -224
WIRE -4000 -128 -4000 -224
WIRE -3856 -128 -3856 -224
WIRE -3216 -128 -3216 -160
WIRE -3200 -128 -3216 -128
WIRE -2720 -128 -2720 -160
WIRE -2704 -128 -2720 -128
WIRE -3200 -80 -3200 -128
WIRE -3200 -80 -3216 -80
WIRE -2704 -80 -2704 -128
WIRE -2704 -80 -2720 -80
WIRE -4000 -48 -4000 -128
WIRE -3264 -48 -4000 -48
WIRE -2768 -48 -2832 -48
WIRE -4272 -16 -4272 -128
WIRE -2832 -16 -2832 -48
WIRE -2832 -16 -4272 -16
WIRE -3216 16 -3216 -32
WIRE -3200 16 -3216 16
WIRE -2720 16 -2720 -32
WIRE -2704 16 -2720 16
WIRE -3216 32 -3216 16
WIRE -2720 32 -2720 16
WIRE -3200 80 -3200 16
WIRE -3200 80 -3216 80
WIRE -2704 80 -2704 16
WIRE -2704 80 -2720 80
WIRE -4144 112 -4144 -128
WIRE -3264 112 -4144 112
WIRE -2768 112 -2832 112
WIRE -3856 160 -3856 -128
WIRE -2832 160 -2832 112
WIRE -2832 160 -3856 160
WIRE -3216 176 -3216 128
WIRE -2720 176 -2720 128
WIRE -2720 176 -3216 176
WIRE -2592 176 -2720 176
WIRE -3216 224 -3216 176
WIRE -2720 224 -2720 176
WIRE -3200 272 -3216 272
WIRE -2704 272 -2720 272
WIRE -4272 304 -4272 -16
WIRE -3264 304 -4272 304
WIRE -2768 304 -2832 304
WIRE -3216 336 -3216 320
WIRE -3200 336 -3200 272
WIRE -3200 336 -3216 336
WIRE -2720 336 -2720 320
WIRE -2704 336 -2704 272
WIRE -2704 336 -2720 336
WIRE -4000 368 -4000 -48
WIRE -2832 368 -2832 304
WIRE -2832 368 -4000 368
WIRE -2720 368 -2720 336
WIRE -3216 384 -3216 336
WIRE -2704 416 -2720 416
WIRE -3200 432 -3216 432
WIRE -2768 448 -2832 448
WIRE -4144 464 -4144 112
WIRE -3264 464 -4144 464
WIRE -3216 496 -3216 480
WIRE -3200 496 -3200 432
WIRE -3200 496 -3216 496
WIRE -2720 496 -2720 464
WIRE -2704 496 -2704 416
WIRE -2704 496 -2720 496
WIRE -3856 512 -3856 160
WIRE -2832 512 -2832 448
WIRE -2832 512 -3856 512
WIRE -3216 528 -3216 496
WIRE -3216 528 -3392 528
WIRE -2720 528 -2720 496
WIRE -2720 528 -3216 528
WIRE -2592 528 -2720 528
WIRE -3392 544 -3392 528
WIRE -4272 640 -4272 304
WIRE -4144 640 -4144 464
WIRE -4000 640 -4000 368
WIRE -3856 640 -3856 512
FLAG -3392 544 0
FLAG -3472 -160 0
FLAG -4144 -304 0
FLAG -4272 -304 0
FLAG -4000 -304 0
FLAG -3856 -304 0
FLAG -2592 -160 E
FLAG -2592 528 Ground
FLAG -4144 -128 B
FLAG -4272 -128 A
FLAG -4000 -128 -A
FLAG -3856 -128 -B
FLAG -2592 176 out
IOPIN -2592 176 Out
SYMBOL pmos4 -3264 -128 R0
SYMATTR InstName M1
SYMATTR Value CMOSP
SYMBOL pmos4 -3264 32 R0
SYMATTR InstName M2
SYMATTR Value CMOSP
SYMBOL pmos4 -2768 -128 R0
SYMATTR InstName M3
SYMATTR Value CMOSP
SYMBOL pmos4 -2768 32 R0
SYMATTR InstName M4
SYMATTR Value CMOSP
SYMBOL nmos4 -3264 224 R0
SYMATTR InstName M5
SYMATTR Value CMOSN
SYMBOL nmos4 -3264 384 R0
SYMATTR InstName M6
SYMATTR Value CMOSN
SYMBOL nmos4 -2768 224 R0
SYMATTR InstName M7
SYMATTR Value CMOSN
SYMBOL nmos4 -2768 368 R0
SYMATTR InstName M8
SYMATTR Value CMOSN
SYMBOL voltage -3376 -160 R90
WINDOW 0 -32 56 VBottom 2
WINDOW 3 32 56 VTop 2
WINDOW 123 0 0 Left 0
WINDOW 39 0 0 Left 0
SYMATTR InstName V1
SYMATTR Value 2.5
SYMBOL voltage -4272 -208 R180
WINDOW 0 24 96 Left 2
WINDOW 3 4 146 Left 2
WINDOW 123 0 0 Left 0
WINDOW 39 0 0 Left 0
SYMATTR InstName A
SYMATTR Value PULSE(0 2.5 2m 1n 1n 2ms 2ms 1)
SYMBOL voltage -4144 -208 R180
WINDOW 0 24 96 Left 2
WINDOW 3 -4 193 Left 2
WINDOW 123 0 0 Left 0
WINDOW 39 0 0 Left 0
SYMATTR InstName B
SYMATTR Value PULSE(0 2.5 1m 1n 1n 1ms 2ms 2)
SYMBOL voltage -4000 -208 R180
WINDOW 0 24 96 Left 2
WINDOW 3 7 243 Left 2
WINDOW 123 0 0 Left 0
WINDOW 39 0 0 Left 0
SYMATTR InstName -A
SYMATTR Value PULSE(2.5 0 2m 1n 1n 2ms 2ms 1)
SYMBOL voltage -3856 -208 R180
WINDOW 0 24 96 Left 2
WINDOW 3 8 285 Left 2
WINDOW 123 0 0 Left 0
WINDOW 39 0 0 Left 0
SYMATTR InstName -B
SYMATTR Value PULSE(2.5 0 1m 1n 1n 1ms 2ms 2)
TEXT -2800 -64 Left 2 ;A
TEXT -3288 96 Left 2 ;B
TEXT -3288 280 Left 2 ;A
TEXT -3280 448 Left 2 ;B
TEXT -3296 -64 Left 2 ;-A
TEXT -2808 288 Left 2 ;-A
TEXT -2808 96 Left 2 ;-B
TEXT -2808 432 Left 2 ;-B
TEXT -3056 -288 Left 2 !.tran 4m
TEXT -3224 -376 Left 2 !.inc students_0p25um_mosfet_model.inc
