Version 4
SHEET 1 1268 1300
WIRE -3216 -160 -3392 -160
WIRE -2720 -160 -3216 -160
WIRE -2592 -160 -2720 -160
WIRE -4272 -128 -4272 -224
WIRE -4144 -128 -4144 -224
WIRE -4000 -128 -4000 -224
WIRE -3856 -128 -3856 -224
WIRE -3216 -128 -3216 -160
WIRE -3200 -128 -3216 -128
WIRE -2720 -128 -2720 -160
WIRE -2704 -128 -2720 -128
WIRE -3200 -80 -3200 -128
WIRE -3200 -80 -3216 -80
WIRE -2704 -80 -2704 -128
WIRE -2704 -80 -2720 -80
WIRE -4000 -48 -4000 -128
WIRE -3264 -48 -4000 -48
WIRE -2768 -48 -2832 -48
WIRE -4272 -16 -4272 -128
WIRE -2832 -16 -2832 -48
WIRE -2832 -16 -4272 -16
WIRE -3216 16 -3216 -32
WIRE -3200 16 -3216 16
WIRE -2720 16 -2720 -32
WIRE -2704 16 -2720 16
WIRE -3216 32 -3216 16
WIRE -2720 32 -2720 16
WIRE -3200 80 -3200 16
WIRE -3200 80 -3216 80
WIRE -2704 80 -2704 16
WIRE -2704 80 -2720 80
WIRE -4144 112 -4144 -128
WIRE -3264 112 -4144 112
WIRE -2768 112 -2832 112
WIRE -3856 160 -3856 -128
WIRE -2832 160 -2832 112
WIRE -2832 160 -3856 160
WIRE -3216 176 -3216 128
WIRE -2720 176 -2720 128
WIRE -2720 176 -3216 176
WIRE -2592 176 -2720 176
WIRE -3216 224 -3216 176
WIRE -2720 224 -2720 176
WIRE -3200 272 -3216 272
WIRE -2704 272 -2720 272
WIRE -4272 304 -4272 -16
WIRE -3264 304 -4272 304
WIRE -2768 304 -2832 304
WIRE -3216 336 -3216 320
WIRE -3200 336 -3200 272
WIRE -3200 336 -3216 336
WIRE -2720 336 -2720 320
WIRE -2704 336 -2704 272
WIRE -2704 336 -2720 336
WIRE -4000 368 -4000 -48
WIRE -2832 368 -2832 304
WIRE -2832 368 -4000 368
WIRE -2720 368 -2720 336
WIRE -3216 384 -3216 336
WIRE -2704 416 -2720 416
WIRE -3200 432 -3216 432
WIRE -2768 448 -2832 448
WIRE -4144 464 -4144 112
WIRE -3264 464 -4144 464
WIRE -3216 496 -3216 480
WIRE -3200 496 -3200 432
WIRE -3200 496 -3216 496
WIRE -2720 496 -2720 464
WIRE -2704 496 -2704 416
WIRE -2704 496 -2720 496
WIRE -3856 512 -3856 160
WIRE -2832 512 -2832 448
WIRE -2832 512 -3856 512
WIRE -3216 528 -3216 496
WIRE -3216 528 -3392 528
WIRE -2720 528 -2720 496
WIRE -2720 528 -3216 528
WIRE -2592 528 -2720 528
WIRE -3392 544 -3392 528
WIRE -4272 640 -4272 304
WIRE -4144 640 -4144 464
WIRE -4000 640 -4000 368
WIRE -3856 640 -3856 512
FLAG -3392 544 0
FLAG -3472 -160 0
FLAG -4144 -304 0
FLAG -4272 -304 0
FLAG -4000 -304 0
FLAG -3856 -304 0
FLAG -2592 176 Out
FLAG -2592 -160 E
FLAG -2592 528 Ground
FLAG -4144 -128 B
FLAG -4272 -128 A
FLAG -4000 -128 -A
FLAG -3856 -128 -B
SYMBOL pmos4 -3264 -128 R0
SYMATTR InstName M1
SYMATTR Value CMOSP
SYMBOL pmos4 -3264 32 R0
SYMATTR InstName M2
SYMATTR Value CMOSP
SYMBOL pmos4 -2768 -128 R0
SYMATTR InstName M3
SYMATTR Value CMOSP
SYMBOL pmos4 -2768 32 R0
SYMATTR InstName M4
SYMATTR Value CMOSP
SYMBOL nmos4 -3264 224 R0
SYMATTR InstName M5
SYMATTR Value CMOSN
SYMBOL nmos4 -3264 384 R0
SYMATTR InstName M6
SYMATTR Value CMOSN
SYMBOL nmos4 -2768 224 R0
SYMATTR InstName M7
SYMATTR Value CMOSN
SYMBOL nmos4 -2768 368 R0
SYMATTR InstName M8
SYMATTR Value CMOSN
SYMBOL voltage -3376 -160 R90
WINDOW 0 -32 56 VBottom 2
WINDOW 3 32 56 VTop 2
WINDOW 123 0 0 Left 0
WINDOW 39 0 0 Left 0
SYMATTR InstName V1
SYMATTR Value 2.5
SYMBOL voltage -4272 -208 R180
WINDOW 0 24 96 Left 2
WINDOW 3 4 146 Left 2
WINDOW 123 0 0 Left 0
WINDOW 39 0 0 Left 0
SYMATTR InstName A
SYMATTR Value PULSE(0 2.5 2m 1n 1n 2ms 2ms 1)
SYMBOL voltage -4144 -208 R180
WINDOW 0 24 96 Left 2
WINDOW 3 -4 193 Left 2
WINDOW 123 0 0 Left 0
WINDOW 39 0 0 Left 0
SYMATTR InstName B
SYMATTR Value PULSE(0 2.5 1m 1n 1n 1ms 2ms 2)
SYMBOL voltage -4000 -208 R180
WINDOW 0 24 96 Left 2
WINDOW 3 7 243 Left 2
WINDOW 123 0 0 Left 0
WINDOW 39 0 0 Left 0
SYMATTR InstName -A
SYMATTR Value PULSE(2.5 0 2m 1n 1n 2ms 2ms 1)
SYMBOL voltage -3856 -208 R180
WINDOW 0 24 96 Left 2
WINDOW 3 8 285 Left 2
WINDOW 123 0 0 Left 0
WINDOW 39 0 0 Left 0
SYMATTR InstName -B
SYMATTR Value PULSE(2.5 0 1m 1n 1n 1ms 2ms 2)
TEXT -1968 -736 Left 2 !.MODEL CMOSN  NMOS (                                LEVEL   = 8\n+VERSION = 3.1            TNOM    = 27             TOX     = 5.8E-9\n+XJ      = 1E-7           NCH     = 2.3549E17      VTH0    = 0.3907535\n+K1      = 0.4376003      K2      = 8.265151E-3    K3      = 4.214601E-3\n+K3B     = -3.7220937     W0      = 2.517345E-6    NLX     = 2.310668E-7\n+DVT0W   = 0              DVT1W   = 0              DVT2W   = 0\n+DVT0    = 0.2411602      DVT1    = 0.3707226      DVT2    = -0.5\n+U0      = 316.5922683    UA      = -9.89493E-10   UB      = 2.154013E-18\n+UC      = 2.474632E-11   VSAT    = 1.254499E5     A0      = 1.2735648\n+AGS     = 0.2428704      B0      = 2.579719E-8    B1      = -1E-7\n+KETA    = 4.87168E-4     A1      = 0              A2      = 0.5196633\n+RDSW    = 120            PRWG    = 0.5            PRWB    = -0.2\n+WR      = 1              WINT    = 2.357855E-8    LINT    = 1.210018E-9\n+XL      = 3E-8           XW      = 0              DWG     = 2.292632E-9\n+DWB     = -9.94921E-10   VOFF    = -0.1039771     NFACTOR = 1.3905578\n+CIT     = 0              CDSC    = 2.4E-4         CDSCD   = 0\n+CDSCB   = 0              ETA0    = 3.894977E-3    ETAB    = 7.800632E-4\n+DSUB    = 0.0307944      PCLM    = 1.7312397      PDIBLC1 = 0.999135\n+PDIBLC2 = 4.850036E-3    PDIBLCB = -0.0866866     DROUT   = 0.8612131\n+PSCBE1  = 7.995844E10    PSCBE2  = 1.457011E-8    PVAG    = 0.0099984\n+DELTA   = 0.01           RSH     = 5              MOBMOD  = 1\n+PRT     = 0              UTE     = -1.5           KT1     = -0.11\n+KT1L    = 0              KT2     = 0.022          UA1     = 4.31E-9\n+UB1     = -7.61E-18      UC1     = -5.6E-11       AT      = 3.3E4\n+WL      = 0              WLN     = 1              WW      = -1.22182E-16\n+WWN     = 1.2127         WWL     = 0              LL      = 0\n+LLN     = 1              LW      = 0              LWN     = 1\n+LWL     = 0              CAPMOD  = 2              XPART   = 0.4\n+CGDO    = 3.11E-10       CGSO    = 3.11E-10       CGBO    = 1E-12\n+CJ      = 1.741905E-3    PB      = 0.9876681      MJ      = 0.4679558\n+CJSW    = 3.653429E-10   PBSW    = 0.99           MJSW    = 0.2943558\n+CF      = 0              PVTH0   = -0.01          PRDSW   = 0\n+PK2     = 2.589681E-3    WKETA   = -1.866069E-3   LKETA   = -0.0166961      )
TEXT -1960 248 Left 2 !.MODEL CMOSP  PMOS (                                LEVEL   = 8\n+VERSION = 3.1            TNOM    = 27             TOX     = 5.8E-9\n+XJ      = 1E-7           NCH     = 4.1589E17      VTH0    = -0.583228\n+K1      = 0.5999865      K2      = 6.150203E-3    K3      = 0\n+K3B     = 3.6314079      W0      = 1E-6           NLX     = 1E-9\n+DVT0W   = 0              DVT1W   = 0              DVT2W   = 0\n+DVT0    = 2.8749516      DVT1    = 0.7488605      DVT2    = -0.0917408\n+U0      = 136.076212     UA      = 2.023988E-9    UB      = 1E-21\n+UC      = -9.26638E-11   VSAT    = 2E5            A0      = 0.951197\n+AGS     = 0.20963        B0      = 1.345599E-6    B1      = 5E-6\n+KETA    = 0.0114727      A1      = 3.851541E-4    A2      = 0.614676\n+RDSW    = 1.496983E3     PRWG    = -0.0440632     PRWB    = -0.2945454\n+WR      = 1              WINT    = 7.879211E-9    LINT    = 2.894523E-8\n+XL      = 3E-8           XW      = 0              DWG     = -1.112097E-8\n+DWB     = 9.815716E-9    VOFF    = -0.1204623     NFACTOR = 1.2259401\n+CIT     = 0              CDSC    = 2.4E-4         CDSCD   = 0\n+CDSCB   = 0              ETA0    = 0.3325261      ETAB    = -0.0623452\n+DSUB    = 0.9206875      PCLM    = 0.833903       PDIBLC1 = 9.948506E-4\n+PDIBLC2 = 0.0191187      PDIBLCB = -1E-3          DROUT   = 0.9938581\n+PSCBE1  = 2.887413E10    PSCBE2  = 8.325891E-9    PVAG    = 0.8478443\n+DELTA   = 0.01           RSH     = 3.6            MOBMOD  = 1\n+PRT     = 0              UTE     = -1.5           KT1     = -0.11\n+KT1L    = 0              KT2     = 0.022          UA1     = 4.31E-9\n+UB1     = -7.61E-18      UC1     = -5.6E-11       AT      = 3.3E4\n+WL      = 0              WLN     = 1              WW      = 0\n+WWN     = 1              WWL     = 0              LL      = 0\n+LLN     = 1              LW      = 0              LWN     = 1\n+LWL     = 0              CAPMOD  = 2              XPART   = 0.4\n+CGDO    = 2.68E-10       CGSO    = 2.68E-10       CGBO    = 1E-12\n+CJ      = 1.864957E-3    PB      = 0.976468       MJ      = 0.4614408\n+CJSW    = 3.118281E-10   PBSW    = 0.6870843      MJSW    = 0.3021929\n+CF      = 0              PVTH0   = 6.397941E-3    PRDSW   = 30.410214\n+PK2     = 2.100359E-3    WKETA   = 5.428923E-3    LKETA   = -0.0111599      )
TEXT -2800 -64 Left 2 ;A
TEXT -3288 96 Left 2 ;B
TEXT -3288 280 Left 2 ;A
TEXT -3280 448 Left 2 ;B
TEXT -3296 -64 Left 2 ;-A
TEXT -2808 288 Left 2 ;-A
TEXT -2808 96 Left 2 ;-B
TEXT -2808 432 Left 2 ;-B
TEXT -3056 -284 Left 2 !.tran 5m
