Version 4
SHEET 1 1268 1300
WIRE -2336 -896 -2448 -896
WIRE -2240 -896 -2336 -896
WIRE -2128 -896 -2240 -896
WIRE -2032 -896 -2128 -896
WIRE -4000 -352 -4000 -368
WIRE -3968 -352 -4000 -352
WIRE -3696 -352 -3968 -352
WIRE -3424 -352 -3696 -352
WIRE -3968 -144 -3968 -352
WIRE -3696 -144 -3696 -352
WIRE -3424 -144 -3424 -352
WIRE -4272 -96 -4272 -368
WIRE -4080 -96 -4272 -96
WIRE -4016 -96 -4080 -96
WIRE -3840 -96 -3888 -96
WIRE -3824 -96 -3840 -96
WIRE -3744 -96 -3824 -96
WIRE -3568 -96 -3616 -96
WIRE -3552 -96 -3568 -96
WIRE -3472 -96 -3552 -96
WIRE -3248 -96 -3344 -96
WIRE -3232 -96 -3248 -96
WIRE -3888 -80 -3888 -96
WIRE -3888 -80 -3904 -80
WIRE -3616 -80 -3616 -96
WIRE -3616 -80 -3632 -80
WIRE -3344 -80 -3344 -96
WIRE -3344 -80 -3360 -80
WIRE -4144 -64 -4144 -368
WIRE -4016 -64 -4144 -64
WIRE -3744 -64 -3760 -64
WIRE -3472 -64 -3488 -64
WIRE -3840 64 -3840 -32
WIRE -3840 64 -4000 64
WIRE -3760 64 -3760 -64
WIRE -3760 64 -3840 64
WIRE -3568 64 -3568 -32
WIRE -3568 64 -3760 64
WIRE -3488 64 -3488 -64
WIRE -3488 64 -3568 64
WIRE -3232 64 -3232 -32
WIRE -3232 64 -3488 64
WIRE -4000 80 -4000 64
FLAG -4000 -448 0
FLAG -4144 -448 0
FLAG -4272 -448 0
FLAG -2448 -736 0
FLAG -2336 -736 0
FLAG -2240 -736 0
FLAG -2128 -736 0
FLAG -2032 -736 0
FLAG -4000 80 0
FLAG -4080 -96 Input
FLAG -3824 -96 InputToXOR
FLAG -3552 -96 OutputOfXOR
FLAG -3248 -96 OutputAfterLoad
SYMBOL voltage -4000 -352 R180
WINDOW 0 -32 56 VBottom 2
WINDOW 3 32 56 VTop 2
WINDOW 123 0 0 Left 0
WINDOW 39 0 0 Left 0
SYMATTR InstName E
SYMATTR Value 2.5
SYMBOL voltage -4272 -352 R180
WINDOW 0 24 96 Left 2
WINDOW 3 4 146 Left 2
WINDOW 123 0 0 Left 0
WINDOW 39 0 0 Left 0
SYMATTR InstName A
SYMATTR Value PULSE(0 2.5 0.01n 1p 1p 63.5n 127n 0)
SYMBOL voltage -4144 -352 R180
WINDOW 0 24 96 Left 2
WINDOW 3 -4 193 Left 2
WINDOW 123 0 0 Left 0
WINDOW 39 0 0 Left 0
SYMATTR InstName B
SYMATTR Value 0
SYMBOL voltage -2448 -832 R0
SYMATTR InstName 100%
SYMATTR Value 2.5
SYMBOL voltage -2336 -832 R0
SYMATTR InstName 90%
SYMATTR Value 2.25
SYMBOL voltage -2240 -832 R0
SYMATTR InstName 50%
SYMATTR Value 1.25
SYMBOL voltage -2128 -832 R0
SYMATTR InstName 10%
SYMATTR Value 0.15
SYMBOL voltage -2032 -832 R0
SYMATTR InstName 0%
SYMATTR Value 0
SYMBOL res -2464 -912 R0
SYMATTR InstName R1
SYMATTR Value 100
SYMBOL res -2352 -912 R0
SYMATTR InstName R2
SYMATTR Value 100
SYMBOL res -2256 -912 R0
SYMATTR InstName R3
SYMATTR Value 100
SYMBOL res -2144 -912 R0
SYMATTR InstName R4
SYMATTR Value 100
SYMBOL res -2048 -912 R0
SYMATTR InstName R5
SYMATTR Value 100
SYMBOL cap -3856 -96 R0
SYMATTR InstName C1
SYMATTR Value 10p
SYMBOL cap -3584 -96 R0
SYMATTR InstName C2
SYMATTR Value 10p
SYMBOL cap -3248 -96 R0
SYMATTR InstName C3
SYMATTR Value 10p
SYMBOL XOR -3968 -96 R0
SYMATTR InstName X1
SYMBOL XOR -3696 -96 R0
SYMATTR InstName X2
SYMBOL XOR -3424 -96 R0
SYMATTR InstName X3
TEXT -3352 -616 Left 2 !*.dc A 0 2.5 0.01
TEXT -3352 -656 Left 2 !.tran 240n
