Version 4
SHEET 1 880 680
WIRE 160 -192 160 -224
WIRE 112 -176 64 -176
WIRE 160 -144 160 -176
WIRE 64 -80 64 -176
WIRE 160 -80 160 -96
WIRE 288 -80 160 -80
WIRE 160 -64 160 -80
WIRE 64 16 64 -80
WIRE 112 16 64 16
WIRE 160 16 160 -16
WIRE 160 64 160 32
FLAG 160 64 0
FLAG 288 -80 out
FLAG 160 -304 0
FLAG -16 -80 0
SYMBOL pmos4 112 -96 M180
SYMATTR InstName M1
SYMATTR Value CMOSP
SYMATTR Value2 l=L w=Wp
SYMBOL voltage 160 -208 R180
WINDOW 0 24 96 Left 2
WINDOW 3 24 16 Left 2
SYMATTR InstName E
SYMATTR Value 2.5
SYMBOL voltage 80 -80 R90
WINDOW 0 -32 56 VBottom 2
WINDOW 3 32 56 VTop 2
SYMATTR InstName INPUT
SYMATTR Value 0
SYMBOL nmos4 112 -64 R0
SYMATTR InstName M2
SYMATTR Value CMOSN
SYMATTR Value2 l=L w=Wn
TEXT 296 -312 Left 2 !.param L=0.25u Wn=2.5u Wp=5.86u
TEXT 296 -280 Left 2 !.inc students_0p25um_mosfet_model.inc
TEXT 292 -240 Left 2 !.dc INPUT 0 2.5 0.01
