.model NPN NPN IS=0.000003p BF=100 BR=4 NF=1 NR=1 VAF=50 VAR=4.7 IKF=2m IKR=9m ISE=0.0001p ISC=0.0001p NE=1.5 NC=2.0 RE=10 RC=100 RB=450 RBM=0.1m CJE=0.0121p VJE=0.988 MJE=0.33 CJC=0.0096p VJC=0.808 MJC=0.33 CJS=0.0252p VJS=0.6 MJS=0.33 XCJC=1 FC=0.5 TF=1.2p XTF=7.2 VTF=1.3 ITF=4.5m TR=4n XTB=2 XTI=6 EG=1.11 KF=0.0 AF=1